data_molecular_structure_3

_audit_creation_method    'Converted from CSV data'
_audit_creation_date      2025-09-26

_chemical_name_common     'Loracarbef anhydrous'
_chemical_formula_sum     'C16 H22 Cl N3 O3'

_cell_length_a    25.000
_cell_length_b    25.000
_cell_length_c    25.000
_cell_angle_alpha 90.00
_cell_angle_beta  90.00
_cell_angle_gamma 90.00

_symmetry_space_group_name_H-M   'P 1'
_symmetry_Int_Tables_number      1

loop_
_symmetry_equiv_pos_as_xyz
'x,y,z'

loop_
_atom_site_label
_atom_site_type_symbol
_atom_site_fract_x
_atom_site_fract_y
_atom_site_fract_z
_atom_site_occupancy
N1    N    0.39971   0.54395   0.44546   1.000
C1    C    0.40635   0.48593   0.47403   1.000
C2    C    0.43695   0.48895   0.50662   1.000
O1    O    0.44796   0.45254   0.50651   1.000
N2    N    0.44951   0.51331   0.52495   1.000
C3    C    0.48488   0.50412   0.56645   1.000
C4    C    0.58496   0.55476   0.57218   1.000
O2    O    0.57969   0.60038   0.58554   1.000
N3    N    0.62443   0.52917   0.54441   1.000
C5    C    0.66237   0.55058   0.51084   1.000
C6    C    0.69006   0.60031   0.51634   1.000
O3    O    0.70033   0.63930   0.48653   1.000
O4    O    0.70405   0.59781   0.56463   1.000
C7    C    0.66737   0.52663   0.46288   1.000
Cl1   Cl    0.72364   0.54731   0.41147   1.000
C8    C    0.64137   0.47803   0.45323   1.000
C9    C    0.58578   0.47409   0.48421   1.000
C10   C    0.59252   0.48182   0.53747   1.000
C11   C    0.36543   0.46546   0.52291   1.000
C12   C    0.36126   0.46405   0.57652   1.000
C13   C    0.32530   0.44832   0.60645   1.000
C14   C    0.29356   0.42400   0.58329   1.000
C15   C    0.29711   0.42562   0.52989   1.000
C16   C    0.33307   0.44135   0.50006   1.000
H1    H    0.43071   0.56476   0.42249   1.000
H2    H    0.39684   0.57155   0.50113   1.000
H3    H    0.39063   0.46665   0.43491   1.000
H4    H    0.42778   0.54495   0.53213   1.000
H5    H    0.48636   0.48333   0.60716   1.000
H6    H    0.71900   0.62735   0.57887   1.000
H7    H    0.63613   0.48159   0.40759   1.000
H8    H    0.66307   0.44267   0.45926   1.000
H9    H    0.57196   0.51223   0.45948   1.000
H10   H    0.56244   0.44183   0.45881   1.000
H11   H    0.61115   0.44743   0.55117   1.000
H12   H    0.38361   0.48201   0.59325   1.000
H13   H    0.32278   0.44715   0.64324   1.000
H14   H    0.26756   0.41240   0.60457   1.000
H15   H    0.27466   0.40839   0.51324   1.000
H16   H    0.33559   0.44252   0.46327   1.000

loop_
_geom_bond_atom_site_label_1
_geom_bond_atom_site_label_2
_geom_bond_distance
_geom_bond_site_symmetry_2
N1    C1    1.450   .
N1    H1    1.010   .
N1    H2    1.010   .
C1    C2    1.530   .
C1    C11   1.530   .
C1    H3    1.090   .
C2    O1    1.230   .
C2    N2    1.340   .
N2    C3    1.450   .
N2    H4    1.010   .
C3    C4    1.530   .
C3    C10   1.530   .
C3    H5    1.090   .
C4    O2    1.230   .
C4    N3    1.340   .
N3    C5    1.450   .
C5    C6    1.530   .
C5    C7    1.530   .
C6    O3    1.230   .
C6    O4    1.330   .
O4    H6    0.980   .
C7    C8    1.390   .
C7    Cl1   1.750   .
C8    C9    1.390   .
C8    H7    1.080   .
C8    H8    1.080   .
C9    C10   1.530   .
C9    H9    1.080   .
C9    H10   1.080   .
C10   H11   1.090   .
C11   C12   1.390   .
C11   C16   1.390   .
C12   C13   1.390   .
C12   H12   1.080   .
C13   C14   1.390   .
C13   H13   1.080   .
C14   C15   1.390   .
C14   H14   1.080   .
C15   C16   1.390   .
C15   H15   1.080   .
C16   H16   1.080   .
