data_molecular_structure_2

_audit_creation_method    'Converted from CSV data'
_audit_creation_date      2025-09-26

_chemical_name_common     'Amoxicillin'
_chemical_formula_sum     'C19 H28 N3 O5 S'

_cell_length_a    25.000
_cell_length_b    25.000
_cell_length_c    25.000
_cell_angle_alpha 90.00
_cell_angle_beta  90.00
_cell_angle_gamma 90.00

_symmetry_space_group_name_H-M   'P 1'
_symmetry_Int_Tables_number      1

loop_
_symmetry_equiv_pos_as_xyz
'x,y,z'

loop_
_atom_site_label
_atom_site_type_symbol
_atom_site_fract_x
_atom_site_fract_y
_atom_site_fract_z
_atom_site_occupancy
C1    C    0.65984   0.46884   0.43789   1.000
C2    C    0.61360   0.49648   0.46819   1.000
C3    C    0.57775   0.52439   0.42732   1.000
S1    S    0.57273   0.44223   0.49962   1.000
C4    C    0.56612   0.47286   0.56434   1.000
C5    C    0.51281   0.50747   0.57473   1.000
N1    N    0.46590   0.49145   0.54204   1.000
C6    C    0.43845   0.44455   0.55526   1.000
O1    C    0.44492   0.41634   0.59141   1.000
C7    C    0.39734   0.42635   0.50947   1.000
N2    N    0.41251   0.40896   0.46281   1.000
C8    C    0.36947   0.51315   0.48146   1.000
C9    C    0.36905   0.51238   0.42692   1.000
C10   C    0.34852   0.52854   0.38344   1.000
C11   C    0.32098   0.55490   0.40610   1.000
O2    O    0.30060   0.57045   0.36211   1.000
C12   C    0.32106   0.55596   0.46044   1.000
C13   C    0.34175   0.53980   0.50392   1.000
C14   C    0.54438   0.55671   0.55453   1.000
O3    O    0.53388   0.60083   0.53763   1.000
N3    N    0.59173   0.52955   0.55638   1.000
C15   C    0.63297   0.53379   0.51347   1.000
C16   C    0.68562   0.52073   0.53745   1.000
O4    O    0.69533   0.48969   0.57442   1.000
O5    O    0.72264   0.54643   0.51243   1.000
H1    H    0.68566   0.49010   0.45931   1.000
H2    H    0.64519   0.44330   0.40564   1.000
H3    H    0.68486   0.44406   0.46400   1.000
H4    H    0.59973   0.55733   0.40798   1.000
H5    H    0.56444   0.48134   0.39544   1.000
H6    H    0.54192   0.54196   0.44546   1.000
H7    H    0.58217   0.45527   0.59871   1.000
H8    H    0.50213   0.51125   0.61712   1.000
H9    H    0.45656   0.51251   0.50857   1.000
H10   H    0.36618   0.39572   0.53031   1.000
H11   H    0.43771   0.38572   0.44750   1.000
H12   H    0.40005   0.40693   0.44009   1.000
H13   H    0.38855   0.49959   0.41075   1.000
H14   H    0.34851   0.52785   0.34631   1.000
H15   H    0.27712   0.60105   0.36511   1.000
H16   H    0.30332   0.57448   0.47719   1.000
H17   H    0.34280   0.54022   0.54106   1.000
H18   H    0.63198   0.57553   0.49984   1.000
H19   H    0.75818   0.53751   0.53196   1.000
