data_molecular_structure_from_csv

_audit_creation_method    'Converted from CSV data'
_audit_creation_date      2025-09-26

_chemical_name_common     'Molecule from CSV'
_chemical_formula_sum     '?'

_cell_length_a    30.000
_cell_length_b    30.000
_cell_length_c    30.000
_cell_angle_alpha 90.00
_cell_angle_beta  90.00
_cell_angle_gamma 90.00

_symmetry_space_group_name_H-M   'P 1'
_symmetry_Int_Tables_number      1

loop_
_symmetry_equiv_pos_as_xyz
'x,y,z'

loop_
_atom_site_label
_atom_site_type_symbol
_atom_site_fract_x
_atom_site_fract_y
_atom_site_fract_z
_atom_site_occupancy
C1    C   0.41984  0.68994  0.44889 1.000
C2    C   0.45742  0.66220  0.46882 1.000
C3    C   0.44931  0.61147  0.46467 1.000
O4    O   0.49217  0.58947  0.46068 1.000
C5    C   0.50929  0.58771  0.41835 1.000
O6    O   0.49123  0.60423  0.38544 1.000
C7    C   0.55485  0.56526  0.41723 1.000
C8    C   0.57262  0.56087  0.36971 1.000
C9    C   0.55772  0.52069  0.44352 1.000
O10   O   0.55041  0.53146  0.48964 1.000
C11   C   0.58939  0.52990  0.51728 1.000
C12   C   0.62404  0.56202  0.50437 1.000
C13   C   0.65456  0.58507  0.49232 1.000
C14   C   0.69202  0.60974  0.47649 1.000
C15   C   0.73441  0.60295  0.49243 1.000
N16   N   0.77023  0.62535  0.47604 1.000
C17   C   0.75992  0.65531  0.44436 1.000
N18   N   0.71899  0.66344  0.42780 1.000
N19   N   0.68359  0.64062  0.44499 1.000
C20   C   0.52804  0.48085  0.42582 1.000
C21   C   0.48409  0.49305  0.40313 1.000
C22   C   0.52322  0.43868  0.45688 1.000
O23   O   0.56543  0.43142  0.47934 1.000
C24   C   0.58426  0.38813  0.47261 1.000
O25   O   0.57922  0.36023  0.51093 1.000
C26   C   0.60826  0.36826  0.54732 1.000
C27   C   0.59596  0.40885  0.57493 1.000
C28   C   0.65697  0.36756  0.53285 1.000
C29   C   0.66861  0.39851  0.49316 1.000
N30   N   0.67709  0.44635  0.50304 1.000
C31   C   0.70220  0.46720  0.46652 1.000
C32   C   0.69960  0.45508  0.54533 1.000
C33   C   0.63319  0.39138  0.45569 1.000
O34   O   0.64347  0.35133  0.43071 1.000
C35   C   0.48146  0.43530  0.48997 1.000
C36   C   0.48238  0.39053  0.51526 1.000
O37   O   0.43988  0.43912  0.46667 1.000
C38   C   0.42552  0.40188  0.44107 1.000
C39   C   0.48320  0.47415  0.52403 1.000
C40   C   0.45098  0.47368  0.56363 1.000
C41   C   0.47368  0.49629  0.60383 1.000
C42   C   0.40267  0.48957  0.56053 1.000
N43   N   0.37698  0.47361  0.59274 1.000
O44   O   0.33193  0.48520  0.58739 1.000
C45   C   0.30452  0.45397  0.61053 1.000
C46   C   0.25718  0.46612  0.59866 1.000
C47   C   0.23431  0.49753  0.62504 1.000
C48   C   0.19104  0.51107  0.61423 1.000
C49   C   0.17052  0.49457  0.57598 1.000
C50   C   0.19298  0.46431  0.54890 1.000
C51   C   0.23582  0.44984  0.56022 1.000
Cl52  Cl  0.26016  0.41079  0.52557 1.000
C53   C   0.38121  0.51638  0.52217 1.000
C54   C   0.35407  0.48197  0.49449 1.000
N55   N   0.40716  0.54496  0.49097 1.000
O56   O   0.37114  0.55946  0.45959 1.000
C57   C   0.35332  0.59840  0.47608 1.000
O58   O   0.31709  0.61447  0.46633 1.000
O59   O   0.38076  0.61548  0.50821 1.000
C60   C   0.42059  0.59017  0.50432 1.000
C61   C   0.44582  0.59261  0.54841 1.000
H62   H   0.38983  0.68895  0.46940 1.000
H63   H   0.41117  0.67846  0.41524 1.000
H64   H   0.43023  0.72488  0.44655 1.000
H65   H   0.48847  0.67107  0.45173 1.000
H66   H   0.46192  0.67200  0.50342 1.000
H67   H   0.43090  0.60623  0.43348 1.000
H68   H   0.57636  0.58971  0.43388 1.000
H69   H   0.60736  0.54959  0.36997 1.000
H70   H   0.57147  0.59306  0.35237 1.000
H71   H   0.55326  0.53740  0.34966 1.000
H72   H   0.59220  0.50836  0.44000 1.000
H73   H   0.60257  0.49615  0.51672 1.000
H74   H   0.57807  0.53712  0.55128 1.000
H75   H   0.74172  0.57733  0.51701 1.000
H76   H   0.78724  0.67475  0.43061 1.000
H77   H   0.54856  0.46800  0.39806 1.000
H78   H   0.48886  0.51577  0.37518 1.000
H79   H   0.46063  0.50850  0.42627 1.000
H80   H   0.46843  0.46339  0.38854 1.000
H81   H   0.51794  0.41184  0.43244 1.000
H82   H   0.56647  0.37039  0.44641 1.000
H83   H   0.60389  0.33958  0.56956 1.000
H84   H   0.56181  0.40610  0.58760 1.000
H85   H   0.61840  0.41250  0.60361 1.000
H86   H   0.59725  0.43955  0.55586 1.000
H87   H   0.67887  0.37267  0.56160 1.000
H88   H   0.66428  0.33326  0.52199 1.000
H89   H   0.70047  0.38529  0.48059 1.000
H90   H   0.68336  0.46761  0.43528 1.000
H91   H   0.73415  0.45049  0.46065 1.000
H92   H   0.70904  0.50241  0.47354 1.000
H93   H   0.67467  0.46137  0.57086 1.000
H94   H   0.72182  0.42856  0.55619 1.000
H95   H   0.71937  0.48582  0.54391 1.000
H96   H   0.63438  0.41828  0.43126 1.000
H97   H   0.65837  0.33037  0.45030 1.000
H98   H   0.49040  0.36307  0.49270 1.000
H99   H   0.44959  0.38308  0.52954 1.000
H100  H   0.50695  0.39043  0.54194 1.000
H101  H   0.45179  0.38915  0.41921 1.000
H102  H   0.41376  0.37510  0.46292 1.000
H103  H   0.39739  0.41232  0.42053 1.000
H104  H   0.47945  0.50571  0.50648 1.000
H105  H   0.51689  0.47338  0.53818 1.000
H106  H   0.44723  0.43871  0.57415 1.000
H107  H   0.49523  0.52401  0.59382 1.000
H108  H   0.44966  0.50945  0.62795 1.000
H109  H   0.49502  0.47215  0.62129 1.000
H110  H   0.31034  0.45678  0.64661 1.000
H111  H   0.31292  0.41955  0.60072 1.000
H112  H   0.24999  0.51136  0.65483 1.000
H113  H   0.17371  0.53504  0.63519 1.000
H114  H   0.13709  0.50534  0.56723 1.000
H115  H   0.17670  0.45158  0.51903 1.000
H116  H   0.35727  0.53842  0.53916 1.000
H117  H   0.36710  0.47834  0.46052 1.000
H118  H   0.31955  0.49395  0.49095 1.000
H119  H   0.35374  0.44867  0.50896 1.000
H120  H   0.42584  0.57971  0.57597 1.000
H121  H   0.45306  0.62705  0.55812 1.000
H122  H   0.47756  0.57479  0.54688 1.000